tests/src/test/resources/files/cases/2_remedial_actions/2_4_usage_rules/2Nodes3ParallelLines.uct
##C 2007.05.01
##N
##ZFR
FFR1AA1  FR1          0 2 400.00 1000.00 0.00000 0.00000 0.00000 2000.00 -2000.0 2000.00 -2000.0
FFR2AA1  FR2          0 2 400.00 0.00000 0.00000 -1000.0 0.00000 2000.00 -2000.0 2000.00 -2000.0
##L
FFR1AA1  FFR2AA1  1 0 0.0000 10.000 0.000000   2000
FFR1AA1  FFR2AA1  2 0 0.0000 10.000 0.000000   2000
##T
FFR1AA1  FFR2AA1  3 0 400.0 400.0 1000. 0.0000 10.000 0.000000 0.0	     1000 PST
##R
FFR1AA1  FFR2AA1  3                    -0.68 90.00 16 0         SYMM